<?xml version="1.0" encoding="UTF-8"?>

<!-- generated on Thu Nov 23 13:35:34 2017 by SUMO netconvert Version 0.30.0
<?xml version="1.0" encoding="UTF-8"?>

<configuration xmlns:xsi="http://www.w3.org/2001/XMLSchema-instance" xsi:noNamespaceSchemaLocation="http://sumo.dlr.de/xsd/netconvertConfiguration.xsd">

    <input>
        <node-files value="tl.nod.xml"/>
        <edge-files value="tl.edg.xml"/>
    </input>

    <output>
        <output-file value="tl.net.xml"/>
    </output>

</configuration>
-->

<net version="0.27" xmlns:xsi="http://www.w3.org/2001/XMLSchema-instance" xsi:noNamespaceSchemaLocation="http://sumo.dlr.de/xsd/net_file.xsd">

    <location netOffset="500.00,500.00" convBoundary="0.00,0.00,1000.00,1000.00" origBoundary="-500.00,-500.00,500.00,500.00" projParameter="!"/>

    <edge id=":C_0" function="internal">
        <lane id=":C_0_0" index="0" speed="13.90" length="5.00" shape="491.75,511.35 491.56,509.99 490.98,509.02 490.01,508.44 488.65,508.25"/>
    </edge>
    <edge id=":C_1" function="internal">
        <lane id=":C_1_0" index="0" speed="13.90" length="22.70" shape="491.75,511.35 491.75,488.65"/>
        <lane id=":C_1_1" index="1" speed="13.90" length="22.70" shape="495.05,511.35 495.05,488.65"/>
        <lane id=":C_1_2" index="2" speed="13.90" length="22.70" shape="498.35,511.35 498.35,488.65"/>
    </edge>
    <edge id=":C_4" function="internal">
        <lane id=":C_4_0" index="0" speed="13.90" length="7.47" shape="498.35,511.35 499.16,505.66 500.05,504.18"/>
    </edge>
    <edge id=":C_5" function="internal">
        <lane id=":C_5_0" index="0" speed="13.90" length="2.41" shape="498.35,511.35 499.18,510.11 500.00,509.70"/>
    </edge>
    <edge id=":C_24" function="internal">
        <lane id=":C_24_0" index="0" speed="13.90" length="13.50" shape="500.05,504.18 501.60,501.60 505.66,499.16 511.35,498.35"/>
    </edge>
    <edge id=":C_25" function="internal">
        <lane id=":C_25_0" index="0" speed="13.90" length="2.41" shape="500.00,509.70 500.82,510.11 501.65,511.35"/>
    </edge>
    <edge id=":C_6" function="internal">
        <lane id=":C_6_0" index="0" speed="13.90" length="5.00" shape="511.35,508.25 509.99,508.44 509.02,509.02 508.44,509.99 508.25,511.35"/>
    </edge>
    <edge id=":C_7" function="internal">
        <lane id=":C_7_0" index="0" speed="13.90" length="22.70" shape="511.35,508.25 488.65,508.25"/>
        <lane id=":C_7_1" index="1" speed="13.90" length="22.70" shape="511.35,504.95 488.65,504.95"/>
        <lane id=":C_7_2" index="2" speed="13.90" length="22.70" shape="511.35,501.65 488.65,501.65"/>
    </edge>
    <edge id=":C_10" function="internal">
        <lane id=":C_10_0" index="0" speed="13.90" length="7.47" shape="511.35,501.65 505.66,500.84 504.18,499.95"/>
    </edge>
    <edge id=":C_11" function="internal">
        <lane id=":C_11_0" index="0" speed="13.90" length="2.41" shape="511.35,501.65 510.11,500.82 509.70,500.00"/>
    </edge>
    <edge id=":C_26" function="internal">
        <lane id=":C_26_0" index="0" speed="13.90" length="13.50" shape="504.18,499.95 501.60,498.40 499.16,494.34 498.35,488.65"/>
    </edge>
    <edge id=":C_27" function="internal">
        <lane id=":C_27_0" index="0" speed="13.90" length="2.41" shape="509.70,500.00 510.11,499.18 511.35,498.35"/>
    </edge>
    <edge id=":C_12" function="internal">
        <lane id=":C_12_0" index="0" speed="13.90" length="5.00" shape="508.25,488.65 508.44,490.01 509.02,490.98 509.99,491.56 511.35,491.75"/>
    </edge>
    <edge id=":C_13" function="internal">
        <lane id=":C_13_0" index="0" speed="13.90" length="22.70" shape="508.25,488.65 508.25,511.35"/>
        <lane id=":C_13_1" index="1" speed="13.90" length="22.70" shape="504.95,488.65 504.95,511.35"/>
        <lane id=":C_13_2" index="2" speed="13.90" length="22.70" shape="501.65,488.65 501.65,511.35"/>
    </edge>
    <edge id=":C_16" function="internal">
        <lane id=":C_16_0" index="0" speed="13.90" length="7.47" shape="501.65,488.65 500.84,494.34 499.95,495.82"/>
    </edge>
    <edge id=":C_17" function="internal">
        <lane id=":C_17_0" index="0" speed="13.90" length="2.41" shape="501.65,488.65 500.82,489.89 500.00,490.30"/>
    </edge>
    <edge id=":C_28" function="internal">
        <lane id=":C_28_0" index="0" speed="13.90" length="13.50" shape="499.95,495.82 498.40,498.40 494.34,500.84 488.65,501.65"/>
    </edge>
    <edge id=":C_29" function="internal">
        <lane id=":C_29_0" index="0" speed="13.90" length="2.41" shape="500.00,490.30 499.18,489.89 498.35,488.65"/>
    </edge>
    <edge id=":C_18" function="internal">
        <lane id=":C_18_0" index="0" speed="13.90" length="5.00" shape="488.65,491.75 490.01,491.56 490.98,490.98 491.56,490.01 491.75,488.65"/>
    </edge>
    <edge id=":C_19" function="internal">
        <lane id=":C_19_0" index="0" speed="13.90" length="22.70" shape="488.65,491.75 511.35,491.75"/>
        <lane id=":C_19_1" index="1" speed="13.90" length="22.70" shape="488.65,495.05 511.35,495.05"/>
        <lane id=":C_19_2" index="2" speed="13.90" length="22.70" shape="488.65,498.35 511.35,498.35"/>
    </edge>
    <edge id=":C_22" function="internal">
        <lane id=":C_22_0" index="0" speed="13.90" length="7.47" shape="488.65,498.35 494.34,499.16 495.82,500.05"/>
    </edge>
    <edge id=":C_23" function="internal">
        <lane id=":C_23_0" index="0" speed="13.90" length="2.41" shape="488.65,498.35 489.89,499.18 490.30,500.00"/>
    </edge>
    <edge id=":C_30" function="internal">
        <lane id=":C_30_0" index="0" speed="13.90" length="13.50" shape="495.82,500.05 498.40,501.60 500.84,505.66 501.65,511.35"/>
    </edge>
    <edge id=":C_31" function="internal">
        <lane id=":C_31_0" index="0" speed="13.90" length="2.41" shape="490.30,500.00 489.89,500.82 488.65,501.65"/>
    </edge>
    <edge id=":E_0" function="internal">
        <lane id=":E_0_0" index="0" speed="13.90" length="4.82" shape="1000.00,498.35 1001.24,499.18 1001.65,500.00 1001.24,500.82 1000.00,501.65"/>
    </edge>
    <edge id=":N_0" function="internal">
        <lane id=":N_0_0" index="0" speed="13.90" length="4.82" shape="501.65,1000.00 500.82,1001.24 500.00,1001.65 499.18,1001.24 498.35,1000.00"/>
    </edge>
    <edge id=":S_0" function="internal">
        <lane id=":S_0_0" index="0" speed="13.90" length="4.82" shape="498.35,0.00 499.18,-1.24 500.00,-1.65 500.82,-1.24 501.65,0.00"/>
    </edge>
    <edge id=":W_0" function="internal">
        <lane id=":W_0_0" index="0" speed="13.90" length="4.82" shape="0.00,501.65 -1.24,500.82 -1.65,500.00 -1.24,499.18 0.00,498.35"/>
    </edge>

    <edge id="EI" from="E" to="C" priority="-1">
        <lane id="EI_0" index="0" speed="13.90" length="488.65" shape="1000.00,508.25 511.35,508.25"/>
        <lane id="EI_1" index="1" speed="13.90" length="488.65" shape="1000.00,504.95 511.35,504.95"/>
        <lane id="EI_2" index="2" speed="13.90" length="488.65" shape="1000.00,501.65 511.35,501.65"/>
    </edge>
    <edge id="EO" from="C" to="E" priority="-1">
        <lane id="EO_0" index="0" speed="13.90" length="488.65" shape="511.35,491.75 1000.00,491.75"/>
        <lane id="EO_1" index="1" speed="13.90" length="488.65" shape="511.35,495.05 1000.00,495.05"/>
        <lane id="EO_2" index="2" speed="13.90" length="488.65" shape="511.35,498.35 1000.00,498.35"/>
    </edge>
    <edge id="NI" from="N" to="C" priority="-1">
        <lane id="NI_0" index="0" speed="13.90" length="488.65" shape="491.75,1000.00 491.75,511.35"/>
        <lane id="NI_1" index="1" speed="13.90" length="488.65" shape="495.05,1000.00 495.05,511.35"/>
        <lane id="NI_2" index="2" speed="13.90" length="488.65" shape="498.35,1000.00 498.35,511.35"/>
    </edge>
    <edge id="NO" from="C" to="N" priority="-1">
        <lane id="NO_0" index="0" speed="13.90" length="488.65" shape="508.25,511.35 508.25,1000.00"/>
        <lane id="NO_1" index="1" speed="13.90" length="488.65" shape="504.95,511.35 504.95,1000.00"/>
        <lane id="NO_2" index="2" speed="13.90" length="488.65" shape="501.65,511.35 501.65,1000.00"/>
    </edge>
    <edge id="SI" from="S" to="C" priority="-1">
        <lane id="SI_0" index="0" speed="13.90" length="488.65" shape="508.25,0.00 508.25,488.65"/>
        <lane id="SI_1" index="1" speed="13.90" length="488.65" shape="504.95,0.00 504.95,488.65"/>
        <lane id="SI_2" index="2" speed="13.90" length="488.65" shape="501.65,0.00 501.65,488.65"/>
    </edge>
    <edge id="SO" from="C" to="S" priority="-1">
        <lane id="SO_0" index="0" speed="13.90" length="488.65" shape="491.75,488.65 491.75,0.00"/>
        <lane id="SO_1" index="1" speed="13.90" length="488.65" shape="495.05,488.65 495.05,0.00"/>
        <lane id="SO_2" index="2" speed="13.90" length="488.65" shape="498.35,488.65 498.35,0.00"/>
    </edge>
    <edge id="WI" from="W" to="C" priority="-1">
        <lane id="WI_0" index="0" speed="13.90" length="488.65" shape="0.00,491.75 488.65,491.75"/>
        <lane id="WI_1" index="1" speed="13.90" length="488.65" shape="0.00,495.05 488.65,495.05"/>
        <lane id="WI_2" index="2" speed="13.90" length="488.65" shape="0.00,498.35 488.65,498.35"/>
    </edge>
    <edge id="WO" from="C" to="W" priority="-1">
        <lane id="WO_0" index="0" speed="13.90" length="488.65" shape="488.65,508.25 0.00,508.25"/>
        <lane id="WO_1" index="1" speed="13.90" length="488.65" shape="488.65,504.95 0.00,504.95"/>
        <lane id="WO_2" index="2" speed="13.90" length="488.65" shape="488.65,501.65 0.00,501.65"/>
    </edge>

    <tlLogic id="C" type="static" programID="0" offset="0">
        <phase duration="31" state="GGGGggrrrrrrGGGGggrrrrrr"/>
        <phase duration="4" state="yyyyggrrrrrryyyyggrrrrrr"/>
        <phase duration="6" state="rrrrGGrrrrrrrrrrGGrrrrrr"/>
        <phase duration="4" state="rrrryyrrrrrrrrrryyrrrrrr"/>
        <phase duration="31" state="rrrrrrGGGGggrrrrrrGGGGgg"/>
        <phase duration="4" state="rrrrrryyyyggrrrrrryyyygg"/>
        <phase duration="6" state="rrrrrrrrrrGGrrrrrrrrrrGG"/>
        <phase duration="4" state="rrrrrrrrrryyrrrrrrrrrryy"/>
    </tlLogic>

    <junction id="C" type="traffic_light" x="500.00" y="500.00" incLanes="NI_0 NI_1 NI_2 EI_0 EI_1 EI_2 SI_0 SI_1 SI_2 WI_0 WI_1 WI_2" intLanes=":C_0_0 :C_1_0 :C_1_1 :C_1_2 :C_24_0 :C_25_0 :C_6_0 :C_7_0 :C_7_1 :C_7_2 :C_26_0 :C_27_0 :C_12_0 :C_13_0 :C_13_1 :C_13_2 :C_28_0 :C_29_0 :C_18_0 :C_19_0 :C_19_1 :C_19_2 :C_30_0 :C_31_0" shape="490.15,511.35 509.85,511.35 511.35,509.85 511.35,490.15 509.85,488.65 490.15,488.65 488.65,490.15 488.65,509.85">
        <request index="0" response="000000000000000000000000" foes="100000010000001110000000" cont="0"/>
        <request index="1" response="000000000000000000000000" foes="011111110000011110000000" cont="0"/>
        <request index="2" response="000000000000000000000000" foes="011111110000011110000000" cont="0"/>
        <request index="3" response="000000000000000000000000" foes="011111110000011110000000" cont="0"/>
        <request index="4" response="000000001111000000000000" foes="011110001111111110000000" cont="1"/>
        <request index="5" response="010000001110000001000000" foes="010000001110000001000000" cont="1"/>
        <request index="6" response="000000001110000000000000" foes="010000001110000000100000" cont="0"/>
        <request index="7" response="000000011110000000011111" foes="110000011110000000011111" cont="0"/>
        <request index="8" response="000000011110000000011111" foes="110000011110000000011111" cont="0"/>
        <request index="9" response="000000011110000000011111" foes="110000011110000000011111" cont="0"/>
        <request index="10" response="001111011110000000011110" foes="001111111110000000011110" cont="1"/>
        <request index="11" response="001110000001000000010000" foes="001110000001000000010000" cont="1"/>
        <request index="12" response="000000000000000000000000" foes="001110000000100000010000" cont="0"/>
        <request index="13" response="000000000000000000000000" foes="011110000000011111110000" cont="0"/>
        <request index="14" response="000000000000000000000000" foes="011110000000011111110000" cont="0"/>
        <request index="15" response="000000000000000000000000" foes="011110000000011111110000" cont="0"/>
        <request index="16" response="000000000000000000001111" foes="111110000000011110001111" cont="1"/>
        <request index="17" response="000001000000010000001110" foes="000001000000010000001110" cont="1"/>
        <request index="18" response="000000000000000000001110" foes="000000100000010000001110" cont="0"/>
        <request index="19" response="000000011111000000011110" foes="000000011111110000011110" cont="0"/>
        <request index="20" response="000000011111000000011110" foes="000000011111110000011110" cont="0"/>
        <request index="21" response="000000011111000000011110" foes="000000011111110000011110" cont="0"/>
        <request index="22" response="000000011110001111011110" foes="000000011110001111111110" cont="1"/>
        <request index="23" response="000000010000001110000001" foes="000000010000001110000001" cont="1"/>
    </junction>
    <junction id="E" type="priority" x="1000.00" y="500.00" incLanes="EO_0 EO_1 EO_2" intLanes=":E_0_0" shape="1000.00,500.05 1000.00,490.15 1000.00,499.95">
        <request index="0" response="0" foes="0" cont="0"/>
    </junction>
    <junction id="N" type="priority" x="500.00" y="1000.00" incLanes="NO_0 NO_1 NO_2" intLanes=":N_0_0" shape="499.95,1000.00 509.85,1000.00 500.05,1000.00">
        <request index="0" response="0" foes="0" cont="0"/>
    </junction>
    <junction id="S" type="priority" x="500.00" y="0.00" incLanes="SO_0 SO_1 SO_2" intLanes=":S_0_0" shape="500.05,0.00 490.15,0.00 499.95,0.00">
        <request index="0" response="0" foes="0" cont="0"/>
    </junction>
    <junction id="W" type="priority" x="0.00" y="500.00" incLanes="WO_0 WO_1 WO_2" intLanes=":W_0_0" shape="0.00,499.95 0.00,509.85 0.00,500.05">
        <request index="0" response="0" foes="0" cont="0"/>
    </junction>

    <junction id=":C_24_0" type="internal" x="500.05" y="504.18" incLanes=":C_4_0 SI_0 SI_1 SI_2" intLanes=":C_7_0 :C_7_1 :C_7_2 :C_10_0 :C_11_0 :C_12_0 :C_13_0 :C_13_1 :C_13_2 :C_19_0 :C_19_1 :C_19_2 :C_22_0"/>
    <junction id=":C_25_0" type="internal" x="500.00" y="509.70" incLanes=":C_5_0 EI_0 SI_0 SI_1 SI_2 WI_2" intLanes=":C_6_0 :C_13_0 :C_13_1 :C_13_2 :C_22_0"/>
    <junction id=":C_26_0" type="internal" x="504.18" y="499.95" incLanes=":C_10_0 WI_0 WI_1 WI_2" intLanes=":C_1_0 :C_1_1 :C_1_2 :C_4_0 :C_13_0 :C_13_1 :C_13_2 :C_16_0 :C_17_0 :C_18_0 :C_19_0 :C_19_1 :C_19_2"/>
    <junction id=":C_27_0" type="internal" x="509.70" y="500.00" incLanes=":C_11_0 NI_2 SI_0 WI_0 WI_1 WI_2" intLanes=":C_4_0 :C_12_0 :C_19_0 :C_19_1 :C_19_2"/>
    <junction id=":C_28_0" type="internal" x="499.95" y="495.82" incLanes=":C_16_0 NI_0 NI_1 NI_2" intLanes=":C_0_0 :C_1_0 :C_1_1 :C_1_2 :C_7_0 :C_7_1 :C_7_2 :C_10_0 :C_19_0 :C_19_1 :C_19_2 :C_22_0 :C_23_0"/>
    <junction id=":C_29_0" type="internal" x="500.00" y="490.30" incLanes=":C_17_0 EI_2 NI_0 NI_1 NI_2 WI_0" intLanes=":C_1_0 :C_1_1 :C_1_2 :C_10_0 :C_18_0"/>
    <junction id=":C_30_0" type="internal" x="495.82" y="500.05" incLanes=":C_22_0 EI_0 EI_1 EI_2" intLanes=":C_1_0 :C_1_1 :C_1_2 :C_4_0 :C_5_0 :C_6_0 :C_7_0 :C_7_1 :C_7_2 :C_13_0 :C_13_1 :C_13_2 :C_16_0"/>
    <junction id=":C_31_0" type="internal" x="490.30" y="500.00" incLanes=":C_23_0 EI_0 EI_1 EI_2 NI_0 SI_2" intLanes=":C_0_0 :C_7_0 :C_7_1 :C_7_2 :C_16_0"/>

    <connection from="EI" to="NO" fromLane="0" toLane="0" via=":C_6_0" tl="C" linkIndex="6" dir="r" state="o"/>
    <connection from="EI" to="WO" fromLane="0" toLane="0" via=":C_7_0" tl="C" linkIndex="7" dir="s" state="o"/>
    <connection from="EI" to="WO" fromLane="1" toLane="1" via=":C_7_1" tl="C" linkIndex="8" dir="s" state="o"/>
    <connection from="EI" to="WO" fromLane="2" toLane="2" via=":C_7_2" tl="C" linkIndex="9" dir="s" state="o"/>
    <connection from="EI" to="SO" fromLane="2" toLane="2" via=":C_10_0" tl="C" linkIndex="10" dir="l" state="o"/>
    <connection from="EI" to="EO" fromLane="2" toLane="2" via=":C_11_0" tl="C" linkIndex="11" dir="t" state="o"/>
    <connection from="EO" to="EI" fromLane="2" toLane="2" via=":E_0_0" dir="t" state="M"/>
    <connection from="NI" to="WO" fromLane="0" toLane="0" via=":C_0_0" tl="C" linkIndex="0" dir="r" state="o"/>
    <connection from="NI" to="SO" fromLane="0" toLane="0" via=":C_1_0" tl="C" linkIndex="1" dir="s" state="o"/>
    <connection from="NI" to="SO" fromLane="1" toLane="1" via=":C_1_1" tl="C" linkIndex="2" dir="s" state="o"/>
    <connection from="NI" to="SO" fromLane="2" toLane="2" via=":C_1_2" tl="C" linkIndex="3" dir="s" state="o"/>
    <connection from="NI" to="EO" fromLane="2" toLane="2" via=":C_4_0" tl="C" linkIndex="4" dir="l" state="o"/>
    <connection from="NI" to="NO" fromLane="2" toLane="2" via=":C_5_0" tl="C" linkIndex="5" dir="t" state="o"/>
    <connection from="NO" to="NI" fromLane="2" toLane="2" via=":N_0_0" dir="t" state="M"/>
    <connection from="SI" to="EO" fromLane="0" toLane="0" via=":C_12_0" tl="C" linkIndex="12" dir="r" state="o"/>
    <connection from="SI" to="NO" fromLane="0" toLane="0" via=":C_13_0" tl="C" linkIndex="13" dir="s" state="o"/>
    <connection from="SI" to="NO" fromLane="1" toLane="1" via=":C_13_1" tl="C" linkIndex="14" dir="s" state="o"/>
    <connection from="SI" to="NO" fromLane="2" toLane="2" via=":C_13_2" tl="C" linkIndex="15" dir="s" state="o"/>
    <connection from="SI" to="WO" fromLane="2" toLane="2" via=":C_16_0" tl="C" linkIndex="16" dir="l" state="o"/>
    <connection from="SI" to="SO" fromLane="2" toLane="2" via=":C_17_0" tl="C" linkIndex="17" dir="t" state="o"/>
    <connection from="SO" to="SI" fromLane="2" toLane="2" via=":S_0_0" dir="t" state="M"/>
    <connection from="WI" to="SO" fromLane="0" toLane="0" via=":C_18_0" tl="C" linkIndex="18" dir="r" state="o"/>
    <connection from="WI" to="EO" fromLane="0" toLane="0" via=":C_19_0" tl="C" linkIndex="19" dir="s" state="o"/>
    <connection from="WI" to="EO" fromLane="1" toLane="1" via=":C_19_1" tl="C" linkIndex="20" dir="s" state="o"/>
    <connection from="WI" to="EO" fromLane="2" toLane="2" via=":C_19_2" tl="C" linkIndex="21" dir="s" state="o"/>
    <connection from="WI" to="NO" fromLane="2" toLane="2" via=":C_22_0" tl="C" linkIndex="22" dir="l" state="o"/>
    <connection from="WI" to="WO" fromLane="2" toLane="2" via=":C_23_0" tl="C" linkIndex="23" dir="t" state="o"/>
    <connection from="WO" to="WI" fromLane="2" toLane="2" via=":W_0_0" dir="t" state="M"/>

    <connection from=":C_0" to="WO" fromLane="0" toLane="0" dir="s" state="M"/>
    <connection from=":C_1" to="SO" fromLane="0" toLane="0" dir="s" state="M"/>
    <connection from=":C_1" to="SO" fromLane="1" toLane="1" dir="s" state="M"/>
    <connection from=":C_1" to="SO" fromLane="2" toLane="2" dir="s" state="M"/>
    <connection from=":C_4" to="EO" fromLane="0" toLane="2" via=":C_24_0" dir="s" state="m"/>
    <connection from=":C_24" to="EO" fromLane="0" toLane="2" dir="s" state="M"/>
    <connection from=":C_5" to="NO" fromLane="0" toLane="2" via=":C_25_0" dir="s" state="m"/>
    <connection from=":C_25" to="NO" fromLane="0" toLane="2" dir="s" state="M"/>
    <connection from=":C_6" to="NO" fromLane="0" toLane="0" dir="s" state="M"/>
    <connection from=":C_7" to="WO" fromLane="0" toLane="0" dir="s" state="M"/>
    <connection from=":C_7" to="WO" fromLane="1" toLane="1" dir="s" state="M"/>
    <connection from=":C_7" to="WO" fromLane="2" toLane="2" dir="s" state="M"/>
    <connection from=":C_10" to="SO" fromLane="0" toLane="2" via=":C_26_0" dir="s" state="m"/>
    <connection from=":C_26" to="SO" fromLane="0" toLane="2" dir="s" state="M"/>
    <connection from=":C_11" to="EO" fromLane="0" toLane="2" via=":C_27_0" dir="s" state="m"/>
    <connection from=":C_27" to="EO" fromLane="0" toLane="2" dir="s" state="M"/>
    <connection from=":C_12" to="EO" fromLane="0" toLane="0" dir="s" state="M"/>
    <connection from=":C_13" to="NO" fromLane="0" toLane="0" dir="s" state="M"/>
    <connection from=":C_13" to="NO" fromLane="1" toLane="1" dir="s" state="M"/>
    <connection from=":C_13" to="NO" fromLane="2" toLane="2" dir="s" state="M"/>
    <connection from=":C_16" to="WO" fromLane="0" toLane="2" via=":C_28_0" dir="s" state="m"/>
    <connection from=":C_28" to="WO" fromLane="0" toLane="2" dir="s" state="M"/>
    <connection from=":C_17" to="SO" fromLane="0" toLane="2" via=":C_29_0" dir="s" state="m"/>
    <connection from=":C_29" to="SO" fromLane="0" toLane="2" dir="s" state="M"/>
    <connection from=":C_18" to="SO" fromLane="0" toLane="0" dir="s" state="M"/>
    <connection from=":C_19" to="EO" fromLane="0" toLane="0" dir="s" state="M"/>
    <connection from=":C_19" to="EO" fromLane="1" toLane="1" dir="s" state="M"/>
    <connection from=":C_19" to="EO" fromLane="2" toLane="2" dir="s" state="M"/>
    <connection from=":C_22" to="NO" fromLane="0" toLane="2" via=":C_30_0" dir="s" state="m"/>
    <connection from=":C_30" to="NO" fromLane="0" toLane="2" dir="s" state="M"/>
    <connection from=":C_23" to="WO" fromLane="0" toLane="2" via=":C_31_0" dir="s" state="m"/>
    <connection from=":C_31" to="WO" fromLane="0" toLane="2" dir="s" state="M"/>
    <connection from=":E_0" to="EI" fromLane="0" toLane="2" dir="s" state="M"/>
    <connection from=":N_0" to="NI" fromLane="0" toLane="2" dir="s" state="M"/>
    <connection from=":S_0" to="SI" fromLane="0" toLane="2" dir="s" state="M"/>
    <connection from=":W_0" to="WI" fromLane="0" toLane="2" dir="s" state="M"/>

</net>
