<routes>
            <vType id="0" accel="0.8" decel="4.5" sigma="0.5" length="5" minGap="2.5" maxSpeed="16.67" guiShape="passenger"/>
            <route id="EL" edges="EI SO" />
            <route id="ES" edges="EI WO" />
            <route id="ER" edges="EI NO" />
            <route id="WL" edges="WI NO" />
            <route id="WS" edges="WI EO" />
            <route id="WR" edges="WI SO" />
            <route id="NL" edges="NI EO" />
            <route id="NS" edges="NI SO" />
            <route id="NR" edges="NI WO" />
            <route id="SL" edges="SI WO" />
            <route id="SS" edges="SI NO" />
            <route id="SR" edges="SI EO" />
            
    <vehicle id="0" type="0" route="EL" depart="0" />
    <vehicle id="1" type="0" route="SS" depart="0" />
    <vehicle id="2" type="0" route="WS" depart="0" />
    <vehicle id="3" type="0" route="NR" depart="0" />
    <vehicle id="4" type="0" route="ER" depart="1" />
    <vehicle id="5" type="0" route="SL" depart="1" />
    <vehicle id="6" type="0" route="SR" depart="2" />
    <vehicle id="7" type="0" route="WL" depart="2" />
    <vehicle id="8" type="0" route="WR" depart="2" />
    <vehicle id="9" type="0" route="NS" depart="2" />
    <vehicle id="10" type="0" route="SS" depart="3" />
    <vehicle id="11" type="0" route="WR" depart="3" />
    <vehicle id="12" type="0" route="WL" depart="4" />
    <vehicle id="13" type="0" route="WS" depart="4" />
    <vehicle id="14" type="0" route="WL" depart="5" />
    <vehicle id="15" type="0" route="SS" depart="6" />
    <vehicle id="16" type="0" route="SR" depart="6" />
    <vehicle id="17" type="0" route="WL" depart="6" />
    <vehicle id="18" type="0" route="NS" depart="6" />
    <vehicle id="19" type="0" route="SS" depart="7" />
    <vehicle id="20" type="0" route="NS" depart="7" />
    <vehicle id="21" type="0" route="SR" depart="8" />
    <vehicle id="22" type="0" route="NR" depart="8" />
    <vehicle id="23" type="0" route="SS" depart="9" />
    <vehicle id="24" type="0" route="WL" depart="9" />
    <vehicle id="25" type="0" route="NR" depart="9" />
    <vehicle id="26" type="0" route="ER" depart="10" />
    <vehicle id="27" type="0" route="SS" depart="10" />
    <vehicle id="28" type="0" route="SS" depart="11" />
    <vehicle id="29" type="0" route="NS" depart="11" />
    <vehicle id="30" type="0" route="NR" depart="11" />
    <vehicle id="31" type="0" route="SS" depart="12" />
    <vehicle id="32" type="0" route="WL" depart="12" />
    <vehicle id="33" type="0" route="EL" depart="13" />
    <vehicle id="34" type="0" route="WR" depart="13" />
    <vehicle id="35" type="0" route="SL" depart="14" />
    <vehicle id="36" type="0" route="WR" depart="14" />
    <vehicle id="37" type="0" route="EL" depart="15" />
    <vehicle id="38" type="0" route="SR" depart="15" />
    <vehicle id="39" type="0" route="NR" depart="15" />
    <vehicle id="40" type="0" route="SL" depart="16" />
    <vehicle id="41" type="0" route="WL" depart="16" />
    <vehicle id="42" type="0" route="ER" depart="17" />
    <vehicle id="43" type="0" route="WR" depart="17" />
    <vehicle id="44" type="0" route="EL" depart="18" />
    <vehicle id="45" type="0" route="ER" depart="18" />
    <vehicle id="46" type="0" route="WL" depart="18" />
    <vehicle id="47" type="0" route="SS" depart="19" />
    <vehicle id="48" type="0" route="WL" depart="19" />
    <vehicle id="49" type="0" route="EL" depart="20" />
    <vehicle id="50" type="0" route="SS" depart="20" />
    <vehicle id="51" type="0" route="SR" depart="20" />
    <vehicle id="52" type="0" route="WL" depart="20" />
    <vehicle id="53" type="0" route="NR" depart="20" />
    <vehicle id="54" type="0" route="SR" depart="21" />
    <vehicle id="55" type="0" route="NS" depart="21" />
    <vehicle id="56" type="0" route="NR" depart="21" />
    <vehicle id="57" type="0" route="EL" depart="22" />
    <vehicle id="58" type="0" route="SR" depart="22" />
    <vehicle id="59" type="0" route="NR" depart="22" />
    <vehicle id="60" type="0" route="ER" depart="23" />
    <vehicle id="61" type="0" route="NL" depart="23" />
    <vehicle id="62" type="0" route="NS" depart="23" />
    <vehicle id="63" type="0" route="SS" depart="24" />
    <vehicle id="64" type="0" route="SR" depart="24" />
    <vehicle id="65" type="0" route="NR" depart="24" />
    <vehicle id="66" type="0" route="EL" depart="25" />
    <vehicle id="67" type="0" route="WL" depart="25" />
    <vehicle id="68" type="0" route="EL" depart="26" />
    <vehicle id="69" type="0" route="EL" depart="27" />
    <vehicle id="70" type="0" route="SR" depart="27" />
    <vehicle id="71" type="0" route="WL" depart="27" />
    <vehicle id="72" type="0" route="SR" depart="28" />
    <vehicle id="73" type="0" route="NS" depart="28" />
    <vehicle id="74" type="0" route="WL" depart="29" />
    <vehicle id="75" type="0" route="WR" depart="29" />
    <vehicle id="76" type="0" route="SL" depart="30" />
    <vehicle id="77" type="0" route="ER" depart="31" />
    <vehicle id="78" type="0" route="NS" depart="31" />
    <vehicle id="79" type="0" route="SR" depart="32" />
    <vehicle id="80" type="0" route="NS" depart="32" />
    <vehicle id="81" type="0" route="SR" depart="33" />
    <vehicle id="82" type="0" route="WL" depart="33" />
    <vehicle id="83" type="0" route="WS" depart="33" />
    <vehicle id="84" type="0" route="NR" depart="33" />
    <vehicle id="85" type="0" route="SR" depart="34" />
    <vehicle id="86" type="0" route="WS" depart="34" />
    <vehicle id="87" type="0" route="NS" depart="34" />
    <vehicle id="88" type="0" route="EL" depart="35" />
    <vehicle id="89" type="0" route="SL" depart="35" />
    <vehicle id="90" type="0" route="SS" depart="35" />
    <vehicle id="91" type="0" route="SS" depart="37" />
    <vehicle id="92" type="0" route="WL" depart="37" />
    <vehicle id="93" type="0" route="SR" depart="38" />
    <vehicle id="94" type="0" route="ES" depart="39" />
    <vehicle id="95" type="0" route="NR" depart="39" />
    <vehicle id="96" type="0" route="ES" depart="40" />
    <vehicle id="97" type="0" route="SR" depart="40" />
    <vehicle id="98" type="0" route="NL" depart="40" />
    <vehicle id="99" type="0" route="EL" depart="41" />
    <vehicle id="100" type="0" route="ER" depart="41" />
    <vehicle id="101" type="0" route="SS" depart="41" />
    <vehicle id="102" type="0" route="WL" depart="41" />
    <vehicle id="103" type="0" route="EL" depart="42" />
    <vehicle id="104" type="0" route="ER" depart="42" />
    <vehicle id="105" type="0" route="NR" depart="42" />
    <vehicle id="106" type="0" route="EL" depart="43" />
    <vehicle id="107" type="0" route="ER" depart="43" />
    <vehicle id="108" type="0" route="SR" depart="43" />
    <vehicle id="109" type="0" route="WR" depart="43" />
    <vehicle id="110" type="0" route="NR" depart="43" />
    <vehicle id="111" type="0" route="ER" depart="44" />
    <vehicle id="112" type="0" route="SL" depart="44" />
    <vehicle id="113" type="0" route="EL" depart="45" />
    <vehicle id="114" type="0" route="SS" depart="45" />
    <vehicle id="115" type="0" route="ER" depart="46" />
    <vehicle id="116" type="0" route="SS" depart="47" />
    <vehicle id="117" type="0" route="WS" depart="47" />
    <vehicle id="118" type="0" route="ES" depart="48" />
    <vehicle id="119" type="0" route="SS" depart="48" />
    <vehicle id="120" type="0" route="NS" depart="48" />
    <vehicle id="121" type="0" route="EL" depart="49" />
    <vehicle id="122" type="0" route="WR" depart="49" />
    <vehicle id="123" type="0" route="NR" depart="50" />
    <vehicle id="124" type="0" route="EL" depart="52" />
    <vehicle id="125" type="0" route="ES" depart="52" />
    <vehicle id="126" type="0" route="SL" depart="53" />
    <vehicle id="127" type="0" route="WR" depart="53" />
    <vehicle id="128" type="0" route="NS" depart="53" />
    <vehicle id="129" type="0" route="NR" depart="53" />
    <vehicle id="130" type="0" route="SL" depart="54" />
    <vehicle id="131" type="0" route="WL" depart="55" />
    <vehicle id="132" type="0" route="NR" depart="55" />
    <vehicle id="133" type="0" route="EL" depart="56" />
    <vehicle id="134" type="0" route="SS" depart="56" />
    <vehicle id="135" type="0" route="WS" depart="57" />
    <vehicle id="136" type="0" route="WR" depart="57" />
    <vehicle id="137" type="0" route="WS" depart="58" />
    <vehicle id="138" type="0" route="WR" depart="58" />
    <vehicle id="139" type="0" route="EL" depart="59" />
    <vehicle id="140" type="0" route="WR" depart="59" />
    <vehicle id="141" type="0" route="SR" depart="60" />
    <vehicle id="142" type="0" route="EL" depart="63" />
    <vehicle id="143" type="0" route="SS" depart="63" />
    <vehicle id="144" type="0" route="WS" depart="63" />
    <vehicle id="145" type="0" route="NR" depart="63" />
    <vehicle id="146" type="0" route="WR" depart="66" />
    <vehicle id="147" type="0" route="ES" depart="67" />
    <vehicle id="148" type="0" route="NS" depart="67" />
    <vehicle id="149" type="0" route="NR" depart="69" />
    <vehicle id="150" type="0" route="EL" depart="70" />
    <vehicle id="151" type="0" route="WL" depart="70" />
    <vehicle id="152" type="0" route="EL" depart="71" />
    <vehicle id="153" type="0" route="SS" depart="71" />
    <vehicle id="154" type="0" route="WR" depart="71" />
    <vehicle id="155" type="0" route="EL" depart="72" />
    <vehicle id="156" type="0" route="ER" depart="72" />
    <vehicle id="157" type="0" route="SS" depart="72" />
    <vehicle id="158" type="0" route="SR" depart="72" />
    <vehicle id="159" type="0" route="WL" depart="72" />
    <vehicle id="160" type="0" route="SS" depart="73" />
    <vehicle id="161" type="0" route="WL" depart="73" />
    <vehicle id="162" type="0" route="WR" depart="74" />
    <vehicle id="163" type="0" route="SR" depart="76" />
    <vehicle id="164" type="0" route="WL" depart="76" />
    <vehicle id="165" type="0" route="WR" depart="76" />
    <vehicle id="166" type="0" route="NR" depart="77" />
    <vehicle id="167" type="0" route="WR" depart="78" />
    <vehicle id="168" type="0" route="SS" depart="79" />
    <vehicle id="169" type="0" route="SR" depart="79" />
    <vehicle id="170" type="0" route="WL" depart="79" />
    <vehicle id="171" type="0" route="NR" depart="79" />
    <vehicle id="172" type="0" route="SS" depart="80" />
    <vehicle id="173" type="0" route="WR" depart="80" />
    <vehicle id="174" type="0" route="NS" depart="80" />
    <vehicle id="175" type="0" route="SR" depart="81" />
    <vehicle id="176" type="0" route="NR" depart="81" />
    <vehicle id="177" type="0" route="SS" depart="82" />
    <vehicle id="178" type="0" route="NR" depart="82" />
    <vehicle id="179" type="0" route="SR" depart="83" />
    <vehicle id="180" type="0" route="WR" depart="83" />
    <vehicle id="181" type="0" route="NS" depart="83" />
    <vehicle id="182" type="0" route="EL" depart="84" />
    <vehicle id="183" type="0" route="SS" depart="84" />
    <vehicle id="184" type="0" route="WL" depart="84" />
    <vehicle id="185" type="0" route="WR" depart="84" />
    <vehicle id="186" type="0" route="NR" depart="84" />
    <vehicle id="187" type="0" route="ES" depart="85" />
    <vehicle id="188" type="0" route="ER" depart="85" />
    <vehicle id="189" type="0" route="SS" depart="85" />
    <vehicle id="190" type="0" route="WL" depart="85" />
    <vehicle id="191" type="0" route="WS" depart="85" />
    <vehicle id="192" type="0" route="ER" depart="86" />
    <vehicle id="193" type="0" route="SR" depart="86" />
    <vehicle id="194" type="0" route="NR" depart="86" />
    <vehicle id="195" type="0" route="SR" depart="87" />
    <vehicle id="196" type="0" route="WL" depart="87" />
    <vehicle id="197" type="0" route="WR" depart="87" />
    <vehicle id="198" type="0" route="SR" depart="88" />
    <vehicle id="199" type="0" route="NR" depart="88" />
    <vehicle id="200" type="0" route="SR" depart="89" />
    <vehicle id="201" type="0" route="NR" depart="89" />
    <vehicle id="202" type="0" route="ER" depart="90" />
    <vehicle id="203" type="0" route="NS" depart="91" />
    <vehicle id="204" type="0" route="NL" depart="92" />
    <vehicle id="205" type="0" route="SR" depart="93" />
    <vehicle id="206" type="0" route="NR" depart="93" />
    <vehicle id="207" type="0" route="WR" depart="94" />
    <vehicle id="208" type="0" route="NL" depart="94" />
    <vehicle id="209" type="0" route="ES" depart="96" />
    <vehicle id="210" type="0" route="SS" depart="96" />
    <vehicle id="211" type="0" route="WL" depart="96" />
    <vehicle id="212" type="0" route="NS" depart="96" />
    <vehicle id="213" type="0" route="EL" depart="97" />
    <vehicle id="214" type="0" route="WL" depart="97" />
    <vehicle id="215" type="0" route="WR" depart="97" />
    <vehicle id="216" type="0" route="NL" depart="97" />
    <vehicle id="217" type="0" route="SS" depart="98" />
    <vehicle id="218" type="0" route="SR" depart="98" />
    <vehicle id="219" type="0" route="NR" depart="98" />
    <vehicle id="220" type="0" route="WR" depart="99" />
    <vehicle id="221" type="0" route="NS" depart="99" />
    <vehicle id="222" type="0" route="SR" depart="100" />
    <vehicle id="223" type="0" route="WL" depart="100" />
    <vehicle id="224" type="0" route="NR" depart="100" />
    <vehicle id="225" type="0" route="NR" depart="101" />
    <vehicle id="226" type="0" route="EL" depart="102" />
    <vehicle id="227" type="0" route="SS" depart="102" />
    <vehicle id="228" type="0" route="WR" depart="102" />
    <vehicle id="229" type="0" route="NS" depart="102" />
    <vehicle id="230" type="0" route="EL" depart="104" />
    <vehicle id="231" type="0" route="ER" depart="104" />
    <vehicle id="232" type="0" route="EL" depart="105" />
    <vehicle id="233" type="0" route="WR" depart="105" />
    <vehicle id="234" type="0" route="WL" depart="106" />
    <vehicle id="235" type="0" route="WL" depart="108" />
    <vehicle id="236" type="0" route="WR" depart="108" />
    <vehicle id="237" type="0" route="NS" depart="108" />
    <vehicle id="238" type="0" route="ER" depart="109" />
    <vehicle id="239" type="0" route="SR" depart="109" />
    <vehicle id="240" type="0" route="NR" depart="109" />
    <vehicle id="241" type="0" route="NR" depart="111" />
    <vehicle id="242" type="0" route="EL" depart="112" />
    <vehicle id="243" type="0" route="SS" depart="112" />
    <vehicle id="244" type="0" route="NR" depart="112" />
    <vehicle id="245" type="0" route="SR" depart="113" />
    <vehicle id="246" type="0" route="WL" depart="113" />
    <vehicle id="247" type="0" route="NR" depart="113" />
    <vehicle id="248" type="0" route="SS" depart="114" />
    <vehicle id="249" type="0" route="WR" depart="114" />
    <vehicle id="250" type="0" route="NR" depart="114" />
    <vehicle id="251" type="0" route="EL" depart="115" />
    <vehicle id="252" type="0" route="WL" depart="115" />
    <vehicle id="253" type="0" route="NL" depart="115" />
    <vehicle id="254" type="0" route="SS" depart="116" />
    <vehicle id="255" type="0" route="WL" depart="116" />
    <vehicle id="256" type="0" route="SL" depart="117" />
    <vehicle id="257" type="0" route="ES" depart="118" />
    <vehicle id="258" type="0" route="NL" depart="118" />
    <vehicle id="259" type="0" route="EL" depart="119" />
    <vehicle id="260" type="0" route="WL" depart="119" />
    <vehicle id="261" type="0" route="NS" depart="119" />
    <vehicle id="262" type="0" route="NR" depart="119" />
    <vehicle id="263" type="0" route="EL" depart="120" />
    <vehicle id="264" type="0" route="SR" depart="120" />
    <vehicle id="265" type="0" route="EL" depart="121" />
    <vehicle id="266" type="0" route="WL" depart="122" />
    <vehicle id="267" type="0" route="ES" depart="123" />
    <vehicle id="268" type="0" route="WR" depart="123" />
    <vehicle id="269" type="0" route="ER" depart="124" />
    <vehicle id="270" type="0" route="SR" depart="124" />
    <vehicle id="271" type="0" route="WL" depart="124" />
    <vehicle id="272" type="0" route="WL" depart="126" />
    <vehicle id="273" type="0" route="ER" depart="127" />
    <vehicle id="274" type="0" route="WS" depart="127" />
    <vehicle id="275" type="0" route="SS" depart="128" />
    <vehicle id="276" type="0" route="SR" depart="128" />
    <vehicle id="277" type="0" route="WL" depart="128" />
    <vehicle id="278" type="0" route="WR" depart="128" />
    <vehicle id="279" type="0" route="ER" depart="129" />
    <vehicle id="280" type="0" route="WL" depart="130" />
    <vehicle id="281" type="0" route="NS" depart="130" />
    <vehicle id="282" type="0" route="NR" depart="130" />
    <vehicle id="283" type="0" route="EL" depart="131" />
    <vehicle id="284" type="0" route="NR" depart="131" />
    <vehicle id="285" type="0" route="SR" depart="132" />
    <vehicle id="286" type="0" route="EL" depart="133" />
    <vehicle id="287" type="0" route="ES" depart="133" />
    <vehicle id="288" type="0" route="SS" depart="134" />
    <vehicle id="289" type="0" route="SR" depart="134" />
    <vehicle id="290" type="0" route="WR" depart="134" />
    <vehicle id="291" type="0" route="SL" depart="135" />
    <vehicle id="292" type="0" route="NS" depart="135" />
    <vehicle id="293" type="0" route="SS" depart="136" />
    <vehicle id="294" type="0" route="ES" depart="137" />
    <vehicle id="295" type="0" route="SR" depart="137" />
    <vehicle id="296" type="0" route="WS" depart="137" />
    <vehicle id="297" type="0" route="NR" depart="138" />
    <vehicle id="298" type="0" route="SR" depart="139" />
    <vehicle id="299" type="0" route="EL" depart="140" />
    <vehicle id="300" type="0" route="SL" depart="140" />
    <vehicle id="301" type="0" route="SS" depart="140" />
    <vehicle id="302" type="0" route="EL" depart="141" />
    <vehicle id="303" type="0" route="SR" depart="142" />
    <vehicle id="304" type="0" route="SR" depart="143" />
    <vehicle id="305" type="0" route="WS" depart="143" />
    <vehicle id="306" type="0" route="NS" depart="143" />
    <vehicle id="307" type="0" route="EL" depart="144" />
    <vehicle id="308" type="0" route="WS" depart="144" />
    <vehicle id="309" type="0" route="WR" depart="144" />
    <vehicle id="310" type="0" route="NR" depart="145" />
    <vehicle id="311" type="0" route="EL" depart="146" />
    <vehicle id="312" type="0" route="WL" depart="146" />
    <vehicle id="313" type="0" route="ER" depart="149" />
    <vehicle id="314" type="0" route="SR" depart="149" />
    <vehicle id="315" type="0" route="WS" depart="149" />
    <vehicle id="316" type="0" route="WS" depart="150" />
    <vehicle id="317" type="0" route="EL" depart="152" />
    <vehicle id="318" type="0" route="ER" depart="152" />
    <vehicle id="319" type="0" route="NR" depart="152" />
    <vehicle id="320" type="0" route="EL" depart="153" />
    <vehicle id="321" type="0" route="SS" depart="153" />
    <vehicle id="322" type="0" route="ER" depart="154" />
    <vehicle id="323" type="0" route="SS" depart="154" />
    <vehicle id="324" type="0" route="SR" depart="154" />
    <vehicle id="325" type="0" route="ER" depart="155" />
    <vehicle id="326" type="0" route="SR" depart="155" />
    <vehicle id="327" type="0" route="WL" depart="155" />
    <vehicle id="328" type="0" route="SR" depart="156" />
    <vehicle id="329" type="0" route="WL" depart="156" />
    <vehicle id="330" type="0" route="SS" depart="157" />
    <vehicle id="331" type="0" route="WS" depart="157" />
    <vehicle id="332" type="0" route="NS" depart="157" />
    <vehicle id="333" type="0" route="EL" depart="158" />
    <vehicle id="334" type="0" route="SS" depart="158" />
    <vehicle id="335" type="0" route="WR" depart="158" />
    <vehicle id="336" type="0" route="NS" depart="158" />
    <vehicle id="337" type="0" route="SS" depart="159" />
    <vehicle id="338" type="0" route="EL" depart="160" />
    <vehicle id="339" type="0" route="ER" depart="160" />
    <vehicle id="340" type="0" route="SR" depart="160" />
    <vehicle id="341" type="0" route="WS" depart="160" />
    <vehicle id="342" type="0" route="EL" depart="162" />
    <vehicle id="343" type="0" route="SS" depart="162" />
    <vehicle id="344" type="0" route="SR" depart="162" />
    <vehicle id="345" type="0" route="WL" depart="162" />
    <vehicle id="346" type="0" route="EL" depart="163" />
    <vehicle id="347" type="0" route="SR" depart="163" />
    <vehicle id="348" type="0" route="NS" depart="163" />
    <vehicle id="349" type="0" route="NR" depart="163" />
    <vehicle id="350" type="0" route="EL" depart="164" />
    <vehicle id="351" type="0" route="ES" depart="164" />
    <vehicle id="352" type="0" route="SS" depart="164" />
    <vehicle id="353" type="0" route="NS" depart="164" />
    <vehicle id="354" type="0" route="WR" depart="165" />
    <vehicle id="355" type="0" route="EL" depart="166" />
    <vehicle id="356" type="0" route="WS" depart="168" />
    <vehicle id="357" type="0" route="NS" depart="169" />
    <vehicle id="358" type="0" route="SS" depart="170" />
    <vehicle id="359" type="0" route="WL" depart="170" />
    <vehicle id="360" type="0" route="SS" depart="171" />
    <vehicle id="361" type="0" route="EL" depart="172" />
    <vehicle id="362" type="0" route="WL" depart="172" />
    <vehicle id="363" type="0" route="WL" depart="173" />
    <vehicle id="364" type="0" route="WR" depart="173" />
    <vehicle id="365" type="0" route="ER" depart="174" />
    <vehicle id="366" type="0" route="SL" depart="174" />
    <vehicle id="367" type="0" route="EL" depart="175" />
    <vehicle id="368" type="0" route="WR" depart="175" />
    <vehicle id="369" type="0" route="NS" depart="175" />
    <vehicle id="370" type="0" route="ER" depart="176" />
    <vehicle id="371" type="0" route="WR" depart="176" />
    <vehicle id="372" type="0" route="SS" depart="178" />
    <vehicle id="373" type="0" route="SR" depart="178" />
    <vehicle id="374" type="0" route="WL" depart="178" />
    <vehicle id="375" type="0" route="EL" depart="179" />
    <vehicle id="376" type="0" route="ER" depart="179" />
    <vehicle id="377" type="0" route="WS" depart="179" />
    <vehicle id="378" type="0" route="WR" depart="179" />
    <vehicle id="379" type="0" route="EL" depart="180" />
    <vehicle id="380" type="0" route="WR" depart="180" />
    <vehicle id="381" type="0" route="SS" depart="181" />
    <vehicle id="382" type="0" route="NL" depart="181" />
    <vehicle id="383" type="0" route="SR" depart="182" />
    <vehicle id="384" type="0" route="WL" depart="182" />
    <vehicle id="385" type="0" route="ER" depart="183" />
    <vehicle id="386" type="0" route="WL" depart="183" />
    <vehicle id="387" type="0" route="EL" depart="184" />
    <vehicle id="388" type="0" route="ES" depart="184" />
    <vehicle id="389" type="0" route="SS" depart="184" />
    <vehicle id="390" type="0" route="SR" depart="184" />
    <vehicle id="391" type="0" route="WL" depart="184" />
    <vehicle id="392" type="0" route="NS" depart="184" />
    <vehicle id="393" type="0" route="EL" depart="185" />
    <vehicle id="394" type="0" route="WL" depart="185" />
    <vehicle id="395" type="0" route="NR" depart="185" />
    <vehicle id="396" type="0" route="SS" depart="186" />
    <vehicle id="397" type="0" route="WR" depart="186" />
    <vehicle id="398" type="0" route="ER" depart="187" />
    <vehicle id="399" type="0" route="SS" depart="188" />
    <vehicle id="400" type="0" route="EL" depart="189" />
    <vehicle id="401" type="0" route="SS" depart="189" />
    <vehicle id="402" type="0" route="ER" depart="192" />
    <vehicle id="403" type="0" route="WS" depart="192" />
    <vehicle id="404" type="0" route="ER" depart="193" />
    <vehicle id="405" type="0" route="ER" depart="194" />
    <vehicle id="406" type="0" route="SL" depart="194" />
    <vehicle id="407" type="0" route="WL" depart="194" />
    <vehicle id="408" type="0" route="WR" depart="194" />
    <vehicle id="409" type="0" route="NR" depart="194" />
    <vehicle id="410" type="0" route="NR" depart="195" />
    <vehicle id="411" type="0" route="WL" depart="196" />
    <vehicle id="412" type="0" route="WR" depart="196" />
    <vehicle id="413" type="0" route="NR" depart="196" />
    <vehicle id="414" type="0" route="SR" depart="197" />
    <vehicle id="415" type="0" route="WR" depart="197" />
    <vehicle id="416" type="0" route="NR" depart="197" />
    <vehicle id="417" type="0" route="SS" depart="199" />
    <vehicle id="418" type="0" route="SR" depart="199" />
    <vehicle id="419" type="0" route="WL" depart="199" />
    <vehicle id="420" type="0" route="WR" depart="199" />
    <vehicle id="421" type="0" route="EL" depart="200" />
    <vehicle id="422" type="0" route="EL" depart="201" />
    <vehicle id="423" type="0" route="ER" depart="201" />
    <vehicle id="424" type="0" route="SL" depart="201" />
    <vehicle id="425" type="0" route="EL" depart="202" />
    <vehicle id="426" type="0" route="ES" depart="202" />
    <vehicle id="427" type="0" route="WL" depart="202" />
    <vehicle id="428" type="0" route="NR" depart="202" />
    <vehicle id="429" type="0" route="EL" depart="203" />
    <vehicle id="430" type="0" route="SR" depart="203" />
    <vehicle id="431" type="0" route="SL" depart="205" />
    <vehicle id="432" type="0" route="SS" depart="205" />
    <vehicle id="433" type="0" route="SR" depart="205" />
    <vehicle id="434" type="0" route="WL" depart="205" />
    <vehicle id="435" type="0" route="SR" depart="206" />
    <vehicle id="436" type="0" route="NR" depart="206" />
    <vehicle id="437" type="0" route="WR" depart="208" />
    <vehicle id="438" type="0" route="SL" depart="209" />
    <vehicle id="439" type="0" route="SR" depart="209" />
    <vehicle id="440" type="0" route="SS" depart="210" />
    <vehicle id="441" type="0" route="SR" depart="210" />
    <vehicle id="442" type="0" route="WR" depart="210" />
    <vehicle id="443" type="0" route="NR" depart="210" />
    <vehicle id="444" type="0" route="SL" depart="211" />
    <vehicle id="445" type="0" route="SR" depart="211" />
    <vehicle id="446" type="0" route="EL" depart="212" />
    <vehicle id="447" type="0" route="SS" depart="212" />
    <vehicle id="448" type="0" route="WS" depart="212" />
    <vehicle id="449" type="0" route="EL" depart="213" />
    <vehicle id="450" type="0" route="SR" depart="213" />
    <vehicle id="451" type="0" route="WL" depart="213" />
    <vehicle id="452" type="0" route="EL" depart="214" />
    <vehicle id="453" type="0" route="SL" depart="214" />
    <vehicle id="454" type="0" route="SR" depart="214" />
    <vehicle id="455" type="0" route="WS" depart="214" />
    <vehicle id="456" type="0" route="EL" depart="215" />
    <vehicle id="457" type="0" route="SS" depart="215" />
    <vehicle id="458" type="0" route="SR" depart="215" />
    <vehicle id="459" type="0" route="NR" depart="215" />
    <vehicle id="460" type="0" route="ER" depart="217" />
    <vehicle id="461" type="0" route="WL" depart="217" />
    <vehicle id="462" type="0" route="NL" depart="218" />
    <vehicle id="463" type="0" route="NS" depart="218" />
    <vehicle id="464" type="0" route="EL" depart="219" />
    <vehicle id="465" type="0" route="WR" depart="219" />
    <vehicle id="466" type="0" route="ER" depart="221" />
    <vehicle id="467" type="0" route="EL" depart="222" />
    <vehicle id="468" type="0" route="SR" depart="222" />
    <vehicle id="469" type="0" route="WL" depart="222" />
    <vehicle id="470" type="0" route="NR" depart="222" />
    <vehicle id="471" type="0" route="ER" depart="223" />
    <vehicle id="472" type="0" route="SR" depart="223" />
    <vehicle id="473" type="0" route="EL" depart="224" />
    <vehicle id="474" type="0" route="SR" depart="224" />
    <vehicle id="475" type="0" route="SR" depart="226" />
    <vehicle id="476" type="0" route="NR" depart="226" />
    <vehicle id="477" type="0" route="EL" depart="227" />
    <vehicle id="478" type="0" route="WR" depart="227" />
    <vehicle id="479" type="0" route="EL" depart="228" />
    <vehicle id="480" type="0" route="WS" depart="228" />
    <vehicle id="481" type="0" route="NR" depart="228" />
    <vehicle id="482" type="0" route="SL" depart="229" />
    <vehicle id="483" type="0" route="WL" depart="229" />
    <vehicle id="484" type="0" route="ER" depart="230" />
    <vehicle id="485" type="0" route="SL" depart="230" />
    <vehicle id="486" type="0" route="SR" depart="230" />
    <vehicle id="487" type="0" route="SR" depart="231" />
    <vehicle id="488" type="0" route="WL" depart="231" />
    <vehicle id="489" type="0" route="WL" depart="232" />
    <vehicle id="490" type="0" route="NR" depart="232" />
    <vehicle id="491" type="0" route="ER" depart="233" />
    <vehicle id="492" type="0" route="NL" depart="233" />
    <vehicle id="493" type="0" route="SS" depart="234" />
    <vehicle id="494" type="0" route="SR" depart="234" />
    <vehicle id="495" type="0" route="WR" depart="234" />
    <vehicle id="496" type="0" route="SS" depart="235" />
    <vehicle id="497" type="0" route="SR" depart="235" />
    <vehicle id="498" type="0" route="WR" depart="235" />
    <vehicle id="499" type="0" route="EL" depart="236" />
    <vehicle id="500" type="0" route="WL" depart="236" />
    <vehicle id="501" type="0" route="WR" depart="236" />
    <vehicle id="502" type="0" route="ES" depart="237" />
    <vehicle id="503" type="0" route="WS" depart="237" />
    <vehicle id="504" type="0" route="EL" depart="239" />
    <vehicle id="505" type="0" route="SR" depart="239" />
    <vehicle id="506" type="0" route="NR" depart="239" />
    <vehicle id="507" type="0" route="SS" depart="240" />
    <vehicle id="508" type="0" route="WL" depart="240" />
    <vehicle id="509" type="0" route="EL" depart="241" />
    <vehicle id="510" type="0" route="SR" depart="241" />